<configuration>

    <input>
        <net-file value="cross.net.xml" />

    <route-files value="cross.rou.xml" />
    </input>
    <processing>
        <time-to-teleport value="-1" />
        <ignore-junction-blocker value="1" />
    </processing>
    <report>
        <verbose value="true" />
        <no-step-log value="true" />
    </report>

</configuration>
