<routes> 
    <route edges="-gneE16 gneE17" color="yellow" id="route_0"/>
    <route edges="-gneE16 gneE13" color="yellow" id="route_1"/>
    <route edges="-gneE16 gneE13" color="magenta" id="route_10"/>
    <route edges="-gneE16 gneE15" color="magenta" id="route_11"/>
    <route edges="-gneE13 gneE17" color="yellow" id="route_12"/>
    <route edges="-gneE13 gneE16" color="yellow" id="route_13"/>
    <route edges="-gneE13 gneE15" color="yellow" id="route_14"/>
    <route edges="-gneE16 gneE15" color="yellow" id="route_2"/>
    <route edges="-gneE15 gneE16" color="red" id="route_3"/>
    <route edges="-gneE15 gneE17" color="red" id="route_4"/>
    <route edges="-gneE15 gneE13" color="red" id="route_5"/>
    <route edges="-gneE17 gneE13" color="blue" id="route_6"/>
    <route edges="-gneE17 gneE15" color="blue" id="route_7"/>
    <route edges="-gneE17 gneE16" color="blue" id="route_8"/>
    <route edges="-gneE16 gneE17" color="magenta" id="route_9"/>

    <vehicle id="0" route="route_4" depart="0" />
    <vehicle id="1" route="route_5" depart="0" />
    <vehicle id="2" route="route_5" depart="1" />
    <vehicle id="3" route="route_9" depart="1" />
    <vehicle id="4" route="route_6" depart="2" />
    <vehicle id="5" route="route_4" depart="4" />
    <vehicle id="6" route="route_7" depart="4" />
    <vehicle id="7" route="route_14" depart="4" />
    <vehicle id="8" route="route_1" depart="5" />
    <vehicle id="9" route="route_9" depart="5" />
    <vehicle id="10" route="route_11" depart="5" />
    <vehicle id="11" route="route_1" depart="6" />
    <vehicle id="12" route="route_7" depart="7" />
    <vehicle id="13" route="route_10" depart="7" />
    <vehicle id="14" route="route_13" depart="7" />
    <vehicle id="15" route="route_5" depart="8" />
    <vehicle id="16" route="route_6" depart="8" />
    <vehicle id="17" route="route_5" depart="9" />
    <vehicle id="18" route="route_3" depart="12" />
    <vehicle id="19" route="route_3" depart="13" />
    <vehicle id="20" route="route_7" depart="13" />
    <vehicle id="21" route="route_14" depart="13" />
    <vehicle id="22" route="route_7" depart="15" />
    <vehicle id="23" route="route_10" depart="15" />
    <vehicle id="24" route="route_2" depart="16" />
    <vehicle id="25" route="route_3" depart="16" />
    <vehicle id="26" route="route_6" depart="16" />
    <vehicle id="27" route="route_9" depart="16" />
    <vehicle id="28" route="route_8" depart="17" />
    <vehicle id="29" route="route_11" depart="18" />
    <vehicle id="30" route="route_1" depart="20" />
    <vehicle id="31" route="route_4" depart="20" />
    <vehicle id="32" route="route_5" depart="20" />
    <vehicle id="33" route="route_6" depart="20" />
    <vehicle id="34" route="route_9" depart="20" />
    <vehicle id="35" route="route_3" depart="21" />
    <vehicle id="36" route="route_10" depart="21" />
    <vehicle id="37" route="route_9" depart="22" />
    <vehicle id="38" route="route_8" depart="23" />
    <vehicle id="39" route="route_14" depart="24" />
    <vehicle id="40" route="route_9" depart="27" />
    <vehicle id="41" route="route_10" depart="27" />
    <vehicle id="42" route="route_1" depart="28" />
    <vehicle id="43" route="route_1" depart="29" />
    <vehicle id="44" route="route_8" depart="31" />
    <vehicle id="45" route="route_2" depart="32" />
    <vehicle id="46" route="route_0" depart="33" />
    <vehicle id="47" route="route_4" depart="34" />
    <vehicle id="48" route="route_4" depart="35" />
    <vehicle id="49" route="route_12" depart="35" />
    <vehicle id="50" route="route_7" depart="36" />
    <vehicle id="51" route="route_10" depart="36" />
    <vehicle id="52" route="route_0" depart="38" />
    <vehicle id="53" route="route_1" depart="38" />
    <vehicle id="54" route="route_6" depart="39" />
    <vehicle id="55" route="route_1" depart="40" />
    <vehicle id="56" route="route_5" depart="40" />
    <vehicle id="57" route="route_6" depart="40" />
    <vehicle id="58" route="route_10" depart="40" />
    <vehicle id="59" route="route_13" depart="40" />
    <vehicle id="60" route="route_1" depart="41" />
    <vehicle id="61" route="route_7" depart="41" />
    <vehicle id="62" route="route_4" depart="42" />
    <vehicle id="63" route="route_8" depart="42" />
    <vehicle id="64" route="route_9" depart="42" />
    <vehicle id="65" route="route_10" depart="42" />
    <vehicle id="66" route="route_12" depart="42" />
    <vehicle id="67" route="route_13" depart="42" />
    <vehicle id="68" route="route_7" depart="43" />
    <vehicle id="69" route="route_11" depart="43" />
    <vehicle id="70" route="route_9" depart="45" />
    <vehicle id="71" route="route_13" depart="45" />
    <vehicle id="72" route="route_9" depart="46" />
    <vehicle id="73" route="route_0" depart="47" />
    <vehicle id="74" route="route_3" depart="47" />
    <vehicle id="75" route="route_7" depart="47" />
    <vehicle id="76" route="route_4" depart="48" />
    <vehicle id="77" route="route_7" depart="48" />
    <vehicle id="78" route="route_11" depart="48" />
    <vehicle id="79" route="route_0" depart="50" />
    <vehicle id="80" route="route_3" depart="50" />
    <vehicle id="81" route="route_14" depart="50" />
    <vehicle id="82" route="route_6" depart="52" />
    <vehicle id="83" route="route_11" depart="52" />
    <vehicle id="84" route="route_7" depart="53" />
    <vehicle id="85" route="route_14" depart="54" />
    <vehicle id="86" route="route_4" depart="55" />
    <vehicle id="87" route="route_11" depart="55" />
    <vehicle id="88" route="route_13" depart="55" />
    <vehicle id="89" route="route_1" depart="56" />
    <vehicle id="90" route="route_3" depart="56" />
    <vehicle id="91" route="route_9" depart="56" />
    <vehicle id="92" route="route_9" depart="57" />
    <vehicle id="93" route="route_9" depart="59" />
    <vehicle id="94" route="route_8" depart="61" />
    <vehicle id="95" route="route_11" depart="61" />
    <vehicle id="96" route="route_2" depart="62" />
    <vehicle id="97" route="route_5" depart="62" />
    <vehicle id="98" route="route_10" depart="62" />
    <vehicle id="99" route="route_5" depart="63" />
    <vehicle id="100" route="route_11" depart="63" />
    <vehicle id="101" route="route_9" depart="64" />
    <vehicle id="102" route="route_5" depart="65" />
    <vehicle id="103" route="route_10" depart="66" />
    <vehicle id="104" route="route_0" depart="67" />
    <vehicle id="105" route="route_7" depart="67" />
    <vehicle id="106" route="route_10" depart="69" />
    <vehicle id="107" route="route_14" depart="69" />
    <vehicle id="108" route="route_8" depart="71" />
    <vehicle id="109" route="route_11" depart="71" />
    <vehicle id="110" route="route_0" depart="73" />
    <vehicle id="111" route="route_1" depart="73" />
    <vehicle id="112" route="route_3" depart="73" />
    <vehicle id="113" route="route_13" depart="73" />
    <vehicle id="114" route="route_1" depart="74" />
    <vehicle id="115" route="route_5" depart="74" />
    <vehicle id="116" route="route_6" depart="74" />
    <vehicle id="117" route="route_2" depart="75" />
    <vehicle id="118" route="route_4" depart="75" />
    <vehicle id="119" route="route_8" depart="75" />
    <vehicle id="120" route="route_14" depart="76" />
    <vehicle id="121" route="route_12" depart="77" />
    <vehicle id="122" route="route_2" depart="78" />
    <vehicle id="123" route="route_11" depart="79" />
    <vehicle id="124" route="route_11" depart="81" />
    <vehicle id="125" route="route_7" depart="82" />
    <vehicle id="126" route="route_12" depart="83" />
    <vehicle id="127" route="route_8" depart="84" />
    <vehicle id="128" route="route_12" depart="85" />
    <vehicle id="129" route="route_5" depart="87" />
    <vehicle id="130" route="route_0" depart="88" />
    <vehicle id="131" route="route_4" depart="89" />
    <vehicle id="132" route="route_5" depart="89" />
    <vehicle id="133" route="route_13" depart="89" />
    <vehicle id="134" route="route_2" depart="90" />
    <vehicle id="135" route="route_4" depart="91" />
    <vehicle id="136" route="route_10" depart="91" />
    <vehicle id="137" route="route_11" depart="91" />
    <vehicle id="138" route="route_8" depart="92" />
    <vehicle id="139" route="route_11" depart="92" />
    <vehicle id="140" route="route_12" depart="93" />
    <vehicle id="141" route="route_14" depart="93" />
    <vehicle id="142" route="route_3" depart="94" />
    <vehicle id="143" route="route_11" depart="94" />
    <vehicle id="144" route="route_13" depart="94" />
    <vehicle id="145" route="route_1" depart="95" />
    <vehicle id="146" route="route_7" depart="95" />
    <vehicle id="147" route="route_11" depart="95" />
    <vehicle id="148" route="route_12" depart="95" />
    <vehicle id="149" route="route_6" depart="96" />
    <vehicle id="150" route="route_4" depart="97" />
    <vehicle id="151" route="route_10" depart="97" />
    <vehicle id="152" route="route_3" depart="98" />
    <vehicle id="153" route="route_4" depart="101" />
    <vehicle id="154" route="route_10" depart="101" />
    <vehicle id="155" route="route_14" depart="102" />
    <vehicle id="156" route="route_9" depart="103" />
    <vehicle id="157" route="route_12" depart="104" />
    <vehicle id="158" route="route_8" depart="106" />
    <vehicle id="159" route="route_7" depart="107" />
    <vehicle id="160" route="route_13" depart="107" />
    <vehicle id="161" route="route_9" depart="108" />
    <vehicle id="162" route="route_11" depart="108" />
    <vehicle id="163" route="route_12" depart="108" />
    <vehicle id="164" route="route_1" depart="109" />
    <vehicle id="165" route="route_4" depart="109" />
    <vehicle id="166" route="route_13" depart="109" />
    <vehicle id="167" route="route_11" depart="111" />
    <vehicle id="168" route="route_7" depart="113" />
    <vehicle id="169" route="route_1" depart="114" />
    <vehicle id="170" route="route_11" depart="114" />
    <vehicle id="171" route="route_14" depart="114" />
    <vehicle id="172" route="route_9" depart="115" />
    <vehicle id="173" route="route_14" depart="115" />
    <vehicle id="174" route="route_0" depart="116" />
    <vehicle id="175" route="route_2" depart="116" />
    <vehicle id="176" route="route_8" depart="116" />
    <vehicle id="177" route="route_6" depart="117" />
    <vehicle id="178" route="route_3" depart="118" />
    <vehicle id="179" route="route_10" depart="118" />
    <vehicle id="180" route="route_13" depart="119" />
    <vehicle id="181" route="route_9" depart="123" />
    <vehicle id="182" route="route_13" depart="124" />
    <vehicle id="183" route="route_0" depart="125" />
    <vehicle id="184" route="route_3" depart="125" />
    <vehicle id="185" route="route_12" depart="125" />
    <vehicle id="186" route="route_14" depart="125" />
    <vehicle id="187" route="route_0" depart="127" />
    <vehicle id="188" route="route_1" depart="128" />
    <vehicle id="189" route="route_8" depart="128" />
    <vehicle id="190" route="route_2" depart="129" />
    <vehicle id="191" route="route_7" depart="129" />
    <vehicle id="192" route="route_10" depart="129" />
    <vehicle id="193" route="route_6" depart="130" />
    <vehicle id="194" route="route_7" depart="130" />
    <vehicle id="195" route="route_14" depart="131" />
    <vehicle id="196" route="route_1" depart="132" />
    <vehicle id="197" route="route_14" depart="132" />
    <vehicle id="198" route="route_2" depart="133" />
    <vehicle id="199" route="route_4" depart="133" />
    <vehicle id="200" route="route_2" depart="136" />
    <vehicle id="201" route="route_4" depart="137" />
    <vehicle id="202" route="route_9" depart="137" />
    <vehicle id="203" route="route_9" depart="138" />
    <vehicle id="204" route="route_12" depart="138" />
    <vehicle id="205" route="route_5" depart="139" />
    <vehicle id="206" route="route_14" depart="140" />
    <vehicle id="207" route="route_2" depart="141" />
    <vehicle id="208" route="route_5" depart="141" />
    <vehicle id="209" route="route_7" depart="141" />
    <vehicle id="210" route="route_1" depart="142" />
    <vehicle id="211" route="route_2" depart="142" />
    <vehicle id="212" route="route_8" depart="145" />
    <vehicle id="213" route="route_11" depart="145" />
    <vehicle id="214" route="route_14" depart="145" />
    <vehicle id="215" route="route_12" depart="148" />
    <vehicle id="216" route="route_5" depart="149" />
    <vehicle id="217" route="route_11" depart="149" />
    <vehicle id="218" route="route_12" depart="149" />
    <vehicle id="219" route="route_14" depart="149" />
    <vehicle id="220" route="route_8" depart="150" />
    <vehicle id="221" route="route_3" depart="151" />
    <vehicle id="222" route="route_10" depart="152" />
    <vehicle id="223" route="route_2" depart="153" />
    <vehicle id="224" route="route_6" depart="153" />
    <vehicle id="225" route="route_14" depart="153" />
    <vehicle id="226" route="route_1" depart="154" />
    <vehicle id="227" route="route_11" depart="154" />
    <vehicle id="228" route="route_6" depart="155" />
    <vehicle id="229" route="route_7" depart="156" />
    <vehicle id="230" route="route_1" depart="159" />
    <vehicle id="231" route="route_10" depart="159" />
    <vehicle id="232" route="route_14" depart="159" />
    <vehicle id="233" route="route_7" depart="160" />
    <vehicle id="234" route="route_8" depart="162" />
    <vehicle id="235" route="route_9" depart="162" />
    <vehicle id="236" route="route_10" depart="163" />
    <vehicle id="237" route="route_12" depart="163" />
    <vehicle id="238" route="route_2" depart="164" />
    <vehicle id="239" route="route_7" depart="164" />
    <vehicle id="240" route="route_9" depart="164" />
    <vehicle id="241" route="route_14" depart="164" />
    <vehicle id="242" route="route_7" depart="166" />
    <vehicle id="243" route="route_8" depart="166" />
    <vehicle id="244" route="route_3" depart="168" />
    <vehicle id="245" route="route_6" depart="168" />
    <vehicle id="246" route="route_7" depart="168" />
    <vehicle id="247" route="route_12" depart="169" />
    <vehicle id="248" route="route_0" depart="170" />
    <vehicle id="249" route="route_4" depart="171" />
    <vehicle id="250" route="route_4" depart="172" />
    <vehicle id="251" route="route_5" depart="172" />
    <vehicle id="252" route="route_12" depart="172" />
    <vehicle id="253" route="route_1" depart="174" />
    <vehicle id="254" route="route_6" depart="174" />
    <vehicle id="255" route="route_10" depart="174" />
    <vehicle id="256" route="route_9" depart="175" />
    <vehicle id="257" route="route_3" depart="178" />
    <vehicle id="258" route="route_4" depart="178" />
    <vehicle id="259" route="route_5" depart="178" />
    <vehicle id="260" route="route_9" depart="178" />
    <vehicle id="261" route="route_5" depart="179" />
    <vehicle id="262" route="route_6" depart="179" />
    <vehicle id="263" route="route_4" depart="180" />
    <vehicle id="264" route="route_2" depart="183" />
    <vehicle id="265" route="route_10" depart="184" />
    <vehicle id="266" route="route_6" depart="185" />
    <vehicle id="267" route="route_11" depart="187" />
    <vehicle id="268" route="route_1" depart="188" />
    <vehicle id="269" route="route_0" depart="190" />
    <vehicle id="270" route="route_12" depart="190" />
    <vehicle id="271" route="route_10" depart="191" />
    <vehicle id="272" route="route_13" depart="191" />
    <vehicle id="273" route="route_11" depart="192" />
    <vehicle id="274" route="route_2" depart="193" />
    <vehicle id="275" route="route_11" depart="193" />
    <vehicle id="276" route="route_13" depart="193" />
    <vehicle id="277" route="route_8" depart="195" />
    <vehicle id="278" route="route_9" depart="195" />
    <vehicle id="279" route="route_0" depart="196" />
    <vehicle id="280" route="route_11" depart="196" />
    <vehicle id="281" route="route_6" depart="198" />
    <vehicle id="282" route="route_2" depart="199" />
    <vehicle id="283" route="route_3" depart="199" />
    <vehicle id="284" route="route_7" depart="199" />
    <vehicle id="285" route="route_0" depart="200" />
    <vehicle id="286" route="route_6" depart="200" />
    <vehicle id="287" route="route_0" depart="201" />
    <vehicle id="288" route="route_13" depart="203" />
    <vehicle id="289" route="route_14" depart="203" />
    <vehicle id="290" route="route_8" depart="204" />
    <vehicle id="291" route="route_11" depart="204" />
    <vehicle id="292" route="route_5" depart="205" />
    <vehicle id="293" route="route_12" depart="205" />
    <vehicle id="294" route="route_9" depart="206" />
    <vehicle id="295" route="route_4" depart="207" />
    <vehicle id="296" route="route_7" depart="207" />
    <vehicle id="297" route="route_8" depart="207" />
    <vehicle id="298" route="route_12" depart="209" />
    <vehicle id="299" route="route_2" depart="210" />
    <vehicle id="300" route="route_4" depart="210" />
    <vehicle id="301" route="route_0" depart="212" />
    <vehicle id="302" route="route_4" depart="212" />
    <vehicle id="303" route="route_3" depart="213" />
    <vehicle id="304" route="route_4" depart="213" />
    <vehicle id="305" route="route_9" depart="213" />
    <vehicle id="306" route="route_2" depart="214" />
    <vehicle id="307" route="route_6" depart="214" />
    <vehicle id="308" route="route_1" depart="215" />
    <vehicle id="309" route="route_8" depart="215" />
    <vehicle id="310" route="route_9" depart="215" />
    <vehicle id="311" route="route_9" depart="217" />
    <vehicle id="312" route="route_9" depart="218" />
    <vehicle id="313" route="route_13" depart="218" />
    <vehicle id="314" route="route_1" depart="219" />
    <vehicle id="315" route="route_14" depart="219" />
    <vehicle id="316" route="route_7" depart="220" />
    <vehicle id="317" route="route_4" depart="221" />
    <vehicle id="318" route="route_12" depart="222" />
    <vehicle id="319" route="route_8" depart="223" />
    <vehicle id="320" route="route_9" depart="223" />
    <vehicle id="321" route="route_1" depart="224" />
    <vehicle id="322" route="route_8" depart="224" />
    <vehicle id="323" route="route_10" depart="224" />
    <vehicle id="324" route="route_12" depart="224" />
    <vehicle id="325" route="route_11" depart="226" />
    <vehicle id="326" route="route_1" depart="227" />
    <vehicle id="327" route="route_12" depart="227" />
    <vehicle id="328" route="route_13" depart="227" />
    <vehicle id="329" route="route_5" depart="229" />
    <vehicle id="330" route="route_8" depart="229" />
    <vehicle id="331" route="route_3" depart="230" />
    <vehicle id="332" route="route_12" depart="230" />
    <vehicle id="333" route="route_4" depart="231" />
    <vehicle id="334" route="route_1" depart="232" />
    <vehicle id="335" route="route_5" depart="232" />
    <vehicle id="336" route="route_5" depart="233" />
    <vehicle id="337" route="route_6" depart="233" />
    <vehicle id="338" route="route_10" depart="233" />
    <vehicle id="339" route="route_12" depart="234" />
    <vehicle id="340" route="route_0" depart="236" />
    <vehicle id="341" route="route_0" depart="237" />
    <vehicle id="342" route="route_1" depart="237" />
    <vehicle id="343" route="route_4" depart="237" />
    <vehicle id="344" route="route_7" depart="237" />
    <vehicle id="345" route="route_14" depart="237" />
    <vehicle id="346" route="route_9" depart="239" />
    <vehicle id="347" route="route_10" depart="239" />
    <vehicle id="348" route="route_0" depart="241" />
    <vehicle id="349" route="route_6" depart="241" />
    <vehicle id="350" route="route_9" depart="241" />
    <vehicle id="351" route="route_11" depart="241" />
    <vehicle id="352" route="route_12" depart="241" />
    <vehicle id="353" route="route_10" depart="242" />
    <vehicle id="354" route="route_11" depart="243" />
    <vehicle id="355" route="route_13" depart="243" />
    <vehicle id="356" route="route_14" depart="243" />
    <vehicle id="357" route="route_8" depart="244" />
    <vehicle id="358" route="route_1" depart="245" />
    <vehicle id="359" route="route_6" depart="245" />
    <vehicle id="360" route="route_13" depart="245" />
    <vehicle id="361" route="route_10" depart="247" />
    <vehicle id="362" route="route_11" depart="247" />
    <vehicle id="363" route="route_12" depart="247" />
    <vehicle id="364" route="route_2" depart="248" />
    <vehicle id="365" route="route_3" depart="248" />
    <vehicle id="366" route="route_4" depart="248" />
    <vehicle id="367" route="route_2" depart="249" />
    <vehicle id="368" route="route_11" depart="249" />
    <vehicle id="369" route="route_13" depart="250" />
    <vehicle id="370" route="route_9" depart="251" />
    <vehicle id="371" route="route_2" depart="252" />
    <vehicle id="372" route="route_9" depart="253" />
    <vehicle id="373" route="route_10" depart="253" />
    <vehicle id="374" route="route_4" depart="254" />
    <vehicle id="375" route="route_6" depart="254" />
    <vehicle id="376" route="route_12" depart="254" />
    <vehicle id="377" route="route_9" depart="255" />
    <vehicle id="378" route="route_10" depart="255" />
    <vehicle id="379" route="route_7" depart="256" />
    <vehicle id="380" route="route_8" depart="256" />
    <vehicle id="381" route="route_13" depart="258" />
    <vehicle id="382" route="route_2" depart="259" />
    <vehicle id="383" route="route_3" depart="260" />
    <vehicle id="384" route="route_6" depart="261" />
    <vehicle id="385" route="route_12" depart="261" />
    <vehicle id="386" route="route_13" depart="261" />
    <vehicle id="387" route="route_5" depart="262" />
    <vehicle id="388" route="route_7" depart="262" />
    <vehicle id="389" route="route_4" depart="263" />
    <vehicle id="390" route="route_8" depart="263" />
    <vehicle id="391" route="route_11" depart="263" />
    <vehicle id="392" route="route_1" depart="265" />
    <vehicle id="393" route="route_10" depart="265" />
    <vehicle id="394" route="route_12" depart="265" />
    <vehicle id="395" route="route_14" depart="266" />
    <vehicle id="396" route="route_9" depart="267" />
    <vehicle id="397" route="route_2" depart="268" />
    <vehicle id="398" route="route_9" depart="268" />
    <vehicle id="399" route="route_2" depart="269" />
    <vehicle id="400" route="route_4" depart="269" />
    <vehicle id="401" route="route_13" depart="270" />
    <vehicle id="402" route="route_12" depart="271" />
    <vehicle id="403" route="route_1" depart="272" />
    <vehicle id="404" route="route_3" depart="272" />
    <vehicle id="405" route="route_8" depart="274" />
    <vehicle id="406" route="route_13" depart="274" />
    <vehicle id="407" route="route_2" depart="275" />
    <vehicle id="408" route="route_10" depart="275" />
    <vehicle id="409" route="route_4" depart="277" />
    <vehicle id="410" route="route_5" depart="277" />
    <vehicle id="411" route="route_9" depart="277" />
    <vehicle id="412" route="route_0" depart="278" />
    <vehicle id="413" route="route_6" depart="278" />
    <vehicle id="414" route="route_7" depart="278" />
    <vehicle id="415" route="route_7" depart="280" />
    <vehicle id="416" route="route_8" depart="281" />
    <vehicle id="417" route="route_6" depart="282" />
    <vehicle id="418" route="route_14" depart="282" />
    <vehicle id="419" route="route_2" depart="283" />
    <vehicle id="420" route="route_7" depart="283" />
    <vehicle id="421" route="route_9" depart="283" />
    <vehicle id="422" route="route_2" depart="284" />
    <vehicle id="423" route="route_5" depart="286" />
    <vehicle id="424" route="route_6" depart="287" />
    <vehicle id="425" route="route_8" depart="287" />
    <vehicle id="426" route="route_7" depart="289" />
    <vehicle id="427" route="route_1" depart="290" />
    <vehicle id="428" route="route_10" depart="291" />
    <vehicle id="429" route="route_3" depart="292" />
    <vehicle id="430" route="route_4" depart="292" />
    <vehicle id="431" route="route_9" depart="292" />
    <vehicle id="432" route="route_10" depart="292" />
    <vehicle id="433" route="route_12" depart="292" />
    <vehicle id="434" route="route_8" depart="293" />
    <vehicle id="435" route="route_4" depart="294" />
    <vehicle id="436" route="route_13" depart="295" />
    <vehicle id="437" route="route_13" depart="296" />
    <vehicle id="438" route="route_5" depart="298" />
    <vehicle id="439" route="route_7" depart="298" />
    <vehicle id="440" route="route_12" depart="298" />
    <vehicle id="441" route="route_3" depart="299" />
    <vehicle id="442" route="route_1" depart="300" />
    <vehicle id="443" route="route_1" depart="301" />
    <vehicle id="444" route="route_9" depart="301" />
    <vehicle id="445" route="route_8" depart="302" />
    <vehicle id="446" route="route_3" depart="303" />
    <vehicle id="447" route="route_4" depart="303" />
    <vehicle id="448" route="route_13" depart="303" />
    <vehicle id="449" route="route_12" depart="304" />
    <vehicle id="450" route="route_14" depart="304" />
    <vehicle id="451" route="route_8" depart="305" />
    <vehicle id="452" route="route_9" depart="305" />
    <vehicle id="453" route="route_4" depart="306" />
    <vehicle id="454" route="route_6" depart="306" />
    <vehicle id="455" route="route_4" depart="307" />
    <vehicle id="456" route="route_14" depart="307" />
    <vehicle id="457" route="route_9" depart="308" />
    <vehicle id="458" route="route_12" depart="309" />
    <vehicle id="459" route="route_13" depart="309" />
    <vehicle id="460" route="route_7" depart="311" />
    <vehicle id="461" route="route_6" depart="312" />
    <vehicle id="462" route="route_1" depart="314" />
    <vehicle id="463" route="route_9" depart="314" />
    <vehicle id="464" route="route_13" depart="314" />
    <vehicle id="465" route="route_11" depart="315" />
    <vehicle id="466" route="route_3" depart="316" />
    <vehicle id="467" route="route_14" depart="316" />
    <vehicle id="468" route="route_8" depart="317" />
    <vehicle id="469" route="route_14" depart="317" />
    <vehicle id="470" route="route_12" depart="318" />
    <vehicle id="471" route="route_9" depart="319" />
    <vehicle id="472" route="route_0" depart="320" />
    <vehicle id="473" route="route_2" depart="320" />
    <vehicle id="474" route="route_10" depart="320" />
    <vehicle id="475" route="route_4" depart="321" />
    <vehicle id="476" route="route_6" depart="321" />
    <vehicle id="477" route="route_0" depart="322" />
    <vehicle id="478" route="route_11" depart="322" />
    <vehicle id="479" route="route_13" depart="322" />
    <vehicle id="480" route="route_6" depart="324" />
    <vehicle id="481" route="route_12" depart="325" />
    <vehicle id="482" route="route_13" depart="325" />
    <vehicle id="483" route="route_0" depart="326" />
    <vehicle id="484" route="route_10" depart="327" />
    <vehicle id="485" route="route_12" depart="328" />
    <vehicle id="486" route="route_6" depart="329" />
    <vehicle id="487" route="route_7" depart="330" />
    <vehicle id="488" route="route_8" depart="330" />
    <vehicle id="489" route="route_2" depart="331" />
    <vehicle id="490" route="route_6" depart="331" />
    <vehicle id="491" route="route_9" depart="331" />
    <vehicle id="492" route="route_6" depart="334" />
    <vehicle id="493" route="route_7" depart="336" />
    <vehicle id="494" route="route_14" depart="336" />
    <vehicle id="495" route="route_2" depart="337" />
    <vehicle id="496" route="route_13" depart="337" />
    <vehicle id="497" route="route_1" depart="338" />
    <vehicle id="498" route="route_7" depart="338" />
    <vehicle id="499" route="route_12" depart="339" />
    <vehicle id="500" route="route_12" depart="340" />
    <vehicle id="501" route="route_1" depart="341" />
    <vehicle id="502" route="route_4" depart="341" />
    <vehicle id="503" route="route_12" depart="342" />
    <vehicle id="504" route="route_12" depart="343" />
    <vehicle id="505" route="route_2" depart="344" />
    <vehicle id="506" route="route_9" depart="344" />
    <vehicle id="507" route="route_11" depart="344" />
    <vehicle id="508" route="route_13" depart="344" />
    <vehicle id="509" route="route_11" depart="345" />
    <vehicle id="510" route="route_14" depart="345" />
    <vehicle id="511" route="route_2" depart="346" />
    <vehicle id="512" route="route_10" depart="346" />
    <vehicle id="513" route="route_0" depart="347" />
    <vehicle id="514" route="route_9" depart="348" />
    <vehicle id="515" route="route_11" depart="348" />
    <vehicle id="516" route="route_13" depart="348" />
    <vehicle id="517" route="route_12" depart="349" />
    <vehicle id="518" route="route_4" depart="351" />
    <vehicle id="519" route="route_6" depart="351" />
    <vehicle id="520" route="route_9" depart="351" />
    <vehicle id="521" route="route_13" depart="352" />
    <vehicle id="522" route="route_4" depart="354" />
    <vehicle id="523" route="route_7" depart="354" />
    <vehicle id="524" route="route_0" depart="358" />
    <vehicle id="525" route="route_9" depart="358" />
    <vehicle id="526" route="route_14" depart="358" />
    <vehicle id="527" route="route_9" depart="359" />
    <vehicle id="528" route="route_5" depart="360" />
    <vehicle id="529" route="route_2" depart="361" />
    <vehicle id="530" route="route_4" depart="364" />
    <vehicle id="531" route="route_4" depart="365" />
    <vehicle id="532" route="route_6" depart="365" />
    <vehicle id="533" route="route_12" depart="365" />
    <vehicle id="534" route="route_9" depart="366" />
    <vehicle id="535" route="route_3" depart="367" />
    <vehicle id="536" route="route_5" depart="367" />
    <vehicle id="537" route="route_9" depart="367" />
    <vehicle id="538" route="route_5" depart="368" />