<configuration>

    <input>
        <net-file value="cross.net.xml" />
	<additional-files value="cross.tls.switch.xml" />

    <route-files value="cross.rou_0.xml" /></input>

    <processing>
        <time-to-teleport value="-1" />
        <ignore-junction-blocker value="1" />
    </processing>
    <report>
        <verbose value="true" />
        <no-step-log value="false" />
    </report>

</configuration>
